Version 4
SHEET 1 2756 772
WIRE -1536 -1344 -1536 -1392
WIRE -1536 -1248 -1536 -1264
WIRE -1232 -1248 -1536 -1248
WIRE -2080 -1232 -2080 -1264
WIRE -1936 -1232 -2080 -1232
WIRE -1712 -1232 -1856 -1232
WIRE -1712 -1216 -1712 -1232
WIRE -1664 -1216 -1664 -1296
WIRE -1536 -1216 -1536 -1248
WIRE -2080 -1136 -2080 -1232
WIRE -2080 -1008 -2080 -1056
WIRE -1712 -1008 -1712 -1024
WIRE -1712 -1008 -2080 -1008
WIRE -2080 -976 -2080 -1008
WIRE -1664 -944 -1664 -1024
WIRE -2080 -848 -2080 -896
WIRE -496 -224 -576 -224
WIRE 208 -224 -496 -224
WIRE -48 -144 -48 -304
WIRE -1264 -128 -1264 -176
WIRE -1264 -16 -1264 -48
WIRE -48 80 -48 -80
WIRE -352 128 -352 -16
WIRE -496 144 -496 -224
WIRE -496 144 -576 144
WIRE -384 144 -496 144
WIRE -96 160 -320 160
WIRE -1264 176 -1264 128
WIRE -1120 176 -1120 128
WIRE -992 176 -992 128
WIRE -384 176 -448 176
WIRE -48 256 -48 176
WIRE -48 256 -416 256
WIRE 208 256 208 -224
WIRE 208 256 -48 256
WIRE -1264 288 -1264 256
WIRE -1120 288 -1120 256
WIRE -992 288 -992 256
WIRE -352 320 -352 192
WIRE -48 352 -48 256
WIRE -48 688 -48 432
FLAG -1264 288 0
FLAG -1264 128 12V
FLAG -352 -16 5V
FLAG -1264 -16 0
FLAG -1264 -176 VCNTL
FLAG -2080 -1264 5V
FLAG -1120 288 0
FLAG -1120 128 5V
FLAG -992 288 0
FLAG -992 128 N5V
FLAG -48 688 0
FLAG -1664 -1296 5V
FLAG -1536 -1392 0
FLAG -1664 -944 0
FLAG -2080 -848 0
FLAG -48 -304 5V
FLAG -352 320 0
FLAG -576 -224 fb
FLAG -576 144 inm
FLAG -448 176 VCNTL
SYMBOL Opamps\\OP291 -352 96 R0
SYMATTR InstName U1
SYMBOL voltage -1264 160 R0
WINDOW 123 0 0 Left 0
WINDOW 39 0 0 Left 0
SYMATTR InstName V1
SYMATTR Value 12
SYMBOL voltage -1264 -144 R0
WINDOW 3 24 44 Left 2
WINDOW 123 0 0 Left 0
WINDOW 39 0 0 Left 0
SYMATTR InstName V2
SYMATTR Value SINE(1 0.8 1000)
SYMBOL res -2096 -1152 R0
SYMATTR InstName R1
SYMATTR Value 0.1
SYMBOL nmos -96 80 R0
SYMATTR InstName M1
SYMATTR Value Si4940DY
SYMBOL LED -64 -144 R0
SYMATTR InstName D1
SYMATTR Value NSSWS108T
SYMBOL voltage -1120 160 R0
WINDOW 123 0 0 Left 0
WINDOW 39 0 0 Left 0
SYMATTR InstName V3
SYMATTR Value 5
SYMBOL voltage -992 160 R0
WINDOW 123 0 0 Left 0
WINDOW 39 0 0 Left 0
SYMATTR InstName V4
SYMATTR Value -5
SYMBOL Opamps\\LT6106 -1648 -1120 R270
SYMATTR InstName U2
SYMBOL res -1520 -1248 R180
WINDOW 0 36 76 Left 2
WINDOW 3 36 40 Left 2
SYMATTR InstName R3
SYMATTR Value 10k
SYMBOL res -1840 -1248 R90
WINDOW 0 0 56 VBottom 2
WINDOW 3 32 56 VTop 2
SYMATTR InstName R4
SYMATTR Value 100
SYMBOL current -2080 -976 R0
WINDOW 123 0 0 Left 0
WINDOW 39 0 0 Left 0
SYMATTR InstName I1
SYMATTR Value 10m
SYMBOL res -64 336 R0
SYMATTR InstName R6
SYMATTR Value 100
TEXT -1810 208 Left 2 !;ac dec 100 1 10MEG
TEXT -1810 256 Left 2 !.tran 0 10m 1m 100u
