Version 4
SHEET 1 3444 1124
WIRE -1536 -1344 -1536 -1392
WIRE -1536 -1248 -1536 -1264
WIRE -1232 -1248 -1536 -1248
WIRE -2080 -1232 -2080 -1264
WIRE -1936 -1232 -2080 -1232
WIRE -1712 -1232 -1856 -1232
WIRE -1712 -1216 -1712 -1232
WIRE -1664 -1216 -1664 -1296
WIRE -1536 -1216 -1536 -1248
WIRE -2080 -1136 -2080 -1232
WIRE -2080 -1008 -2080 -1056
WIRE -1712 -1008 -1712 -1024
WIRE -1712 -1008 -2080 -1008
WIRE -2080 -976 -2080 -1008
WIRE -1664 -944 -1664 -1024
WIRE 432 -864 432 -928
WIRE -2080 -848 -2080 -896
WIRE 1248 -832 1248 -896
WIRE 736 -784 624 -784
WIRE 880 -784 816 -784
WIRE 1504 -752 1408 -752
WIRE 1648 -752 1584 -752
WIRE 1760 -752 1728 -752
WIRE 256 -720 0 -720
WIRE 512 -720 320 -720
WIRE 624 -720 624 -784
WIRE 624 -720 592 -720
WIRE 688 -720 688 -864
WIRE 624 -704 624 -720
WIRE 656 -704 624 -704
WIRE 880 -688 880 -784
WIRE 880 -688 720 -688
WIRE 1152 -688 880 -688
WIRE 1296 -688 1216 -688
WIRE 1408 -688 1408 -752
WIRE 1408 -688 1376 -688
WIRE 1472 -688 1472 -832
WIRE 432 -672 432 -784
WIRE 656 -672 432 -672
WIRE 1408 -672 1408 -688
WIRE 1440 -672 1408 -672
WIRE 1760 -656 1760 -752
WIRE 1760 -656 1504 -656
WIRE 1968 -656 1760 -656
WIRE 1248 -640 1248 -752
WIRE 1440 -640 1248 -640
WIRE 432 -592 432 -672
WIRE 1248 -560 1248 -640
WIRE 688 -528 688 -656
WIRE 1472 -496 1472 -624
WIRE 432 -448 432 -512
WIRE 1248 -416 1248 -480
WIRE -1264 -128 -1264 -176
WIRE -976 -128 -976 -176
WIRE -1264 -16 -1264 -48
WIRE -976 -16 -976 -48
WIRE 2592 80 2512 80
WIRE 3296 80 2592 80
WIRE 3040 160 3040 0
WIRE -1264 176 -1264 128
WIRE -1120 176 -1120 128
WIRE -992 176 -992 128
WIRE -1264 288 -1264 256
WIRE -1120 288 -1120 256
WIRE -992 288 -992 256
WIRE 464 304 464 240
WIRE 816 384 640 384
WIRE 3040 384 3040 224
WIRE 2736 432 2736 288
WIRE 720 448 720 304
WIRE 2592 448 2592 80
WIRE 2592 448 2512 448
WIRE 2704 448 2592 448
WIRE 640 464 640 384
WIRE 688 464 640 464
WIRE 2992 464 2768 464
WIRE 816 480 816 384
WIRE 816 480 752 480
WIRE 1968 480 1968 -656
WIRE 2048 480 1968 480
WIRE 2176 480 2128 480
WIRE 2704 480 2176 480
WIRE 64 496 32 496
WIRE 192 496 144 496
WIRE 288 496 192 496
WIRE 464 496 464 384
WIRE 464 496 352 496
WIRE 688 496 464 496
WIRE 2176 528 2176 480
WIRE 3040 560 3040 480
WIRE 3296 560 3296 80
WIRE 3296 560 3040 560
WIRE 192 576 192 496
WIRE 464 576 464 496
WIRE 2736 624 2736 496
WIRE 720 640 720 512
WIRE 2176 640 2176 592
WIRE 3040 656 3040 560
WIRE 192 720 192 656
WIRE 464 720 464 656
WIRE 3040 992 3040 736
FLAG -1264 288 0
FLAG -1264 128 12V
FLAG 2736 288 5V
FLAG -1264 -16 0
FLAG -1264 -176 VHEADPHONES
FLAG -2080 -1264 5V
FLAG -1120 288 0
FLAG -1120 128 5V
FLAG -992 288 0
FLAG -992 128 VREF
FLAG 3040 992 0
FLAG -1664 -1296 5V
FLAG -1536 -1392 0
FLAG -1664 -944 0
FLAG -2080 -848 0
FLAG 3040 0 12v
FLAG 2736 624 0
FLAG 2512 80 fb
FLAG 2512 448 inm
FLAG 32 496 VHEADPHONES
FLAG 720 304 5V
FLAG 720 640 0
FLAG 464 720 0
FLAG 464 240 VREF
FLAG 192 720 0
FLAG 2176 640 0
FLAG 0 -720 VMIC
FLAG 688 -864 5V
FLAG 688 -528 0
FLAG 432 -448 0
FLAG 432 -928 VREF
FLAG -976 -16 0
FLAG -976 -176 VMIC
FLAG 1472 -832 5V
FLAG 1472 -496 0
FLAG 1248 -416 0
FLAG 1248 -896 VREF
SYMBOL voltage -1264 160 R0
WINDOW 123 0 0 Left 0
WINDOW 39 0 0 Left 0
SYMATTR InstName V1
SYMATTR Value 12
SYMBOL voltage -1264 -144 R0
WINDOW 3 24 44 Left 2
WINDOW 123 0 0 Left 0
WINDOW 39 0 0 Left 0
SYMATTR InstName V2
SYMATTR Value SINE(4 1 4k)
SYMBOL res -2096 -1152 R0
SYMATTR InstName R1
SYMATTR Value 0.1
SYMBOL nmos 2992 384 R0
SYMATTR InstName M1
SYMATTR Value Si4940DY
SYMBOL LED 3024 160 R0
SYMATTR InstName D1
SYMATTR Value NSSWS108T
SYMBOL voltage -1120 160 R0
WINDOW 123 0 0 Left 0
WINDOW 39 0 0 Left 0
SYMATTR InstName V3
SYMATTR Value 5
SYMBOL voltage -992 160 R0
WINDOW 123 0 0 Left 0
WINDOW 39 0 0 Left 0
SYMATTR InstName V4
SYMATTR Value 1.2
SYMBOL Opamps\\LT6106 -1648 -1120 R270
SYMATTR InstName U2
SYMBOL res -1520 -1248 R180
WINDOW 0 36 76 Left 2
WINDOW 3 36 40 Left 2
SYMATTR InstName R3
SYMATTR Value 10k
SYMBOL res -1840 -1248 R90
WINDOW 0 0 56 VBottom 2
WINDOW 3 32 56 VTop 2
SYMATTR InstName R4
SYMATTR Value 100
SYMBOL current -2080 -976 R0
WINDOW 123 0 0 Left 0
WINDOW 39 0 0 Left 0
SYMATTR InstName I1
SYMATTR Value 10m
SYMBOL res 3024 640 R0
SYMATTR InstName R6
SYMATTR Value 140
SYMBOL res 448 288 R0
SYMATTR InstName R2
SYMATTR Value 100k
SYMBOL res 448 560 R0
SYMATTR InstName R5
SYMATTR Value 1000Meg
SYMBOL cap 352 480 R90
WINDOW 0 0 32 VBottom 2
WINDOW 3 32 32 VTop 2
SYMATTR InstName C1
SYMATTR Value 10µ
SYMBOL res 160 480 R90
WINDOW 0 0 56 VBottom 2
WINDOW 3 32 56 VTop 2
SYMATTR InstName R7
SYMATTR Value 22k
SYMBOL res 208 672 R180
WINDOW 0 36 76 Left 2
WINDOW 3 36 40 Left 2
SYMATTR InstName R8
SYMATTR Value 100k
SYMBOL res 2144 464 R90
WINDOW 0 0 56 VBottom 2
WINDOW 3 32 56 VTop 2
SYMATTR InstName R9
SYMATTR Value 1
SYMBOL cap 2160 528 R0
SYMATTR InstName C2
SYMATTR Value 1p
SYMBOL res 416 -880 R0
SYMATTR InstName R10
SYMATTR Value 100
SYMBOL res 416 -608 R0
SYMATTR InstName R11
SYMATTR Value 1000Meg
SYMBOL cap 320 -736 R90
WINDOW 0 0 32 VBottom 2
WINDOW 3 32 32 VTop 2
SYMATTR InstName C3
SYMATTR Value 10µ
SYMBOL voltage -976 -144 R0
WINDOW 3 24 44 Left 2
WINDOW 123 0 0 Left 0
WINDOW 39 0 0 Left 0
SYMATTR InstName V5
SYMATTR Value SINE(3.3 1m 4k)
SYMBOL res 608 -736 R90
WINDOW 0 0 56 VBottom 2
WINDOW 3 32 56 VTop 2
SYMATTR InstName R12
SYMATTR Value 1k
SYMBOL res 832 -800 R90
WINDOW 0 0 56 VBottom 2
WINDOW 3 32 56 VTop 2
SYMATTR InstName R13
SYMATTR Value 100k
SYMBOL Opamps\\AD8648 688 -752 R0
SYMATTR InstName U5
SYMBOL Opamps\\AD8648 2736 400 R0
SYMATTR InstName U4
SYMBOL Opamps\\AD8648 720 416 R0
SYMATTR InstName U1
SYMBOL res 1392 -704 R90
WINDOW 0 0 56 VBottom 2
WINDOW 3 32 56 VTop 2
SYMATTR InstName R14
SYMATTR Value 1k
SYMBOL res 1744 -768 R90
WINDOW 0 0 56 VBottom 2
WINDOW 3 32 56 VTop 2
SYMATTR InstName R15
SYMATTR Value 11k
SYMBOL Opamps\\AD8648 1472 -720 R0
SYMATTR InstName U3
SYMBOL res 1232 -848 R0
SYMATTR InstName R18
SYMATTR Value 100
SYMBOL res 1232 -576 R0
SYMATTR InstName R19
SYMATTR Value 1000Meg
SYMBOL cap 1216 -704 R90
WINDOW 0 0 32 VBottom 2
WINDOW 3 32 32 VTop 2
SYMATTR InstName C4
SYMATTR Value 100n
SYMBOL res 1600 -768 R90
WINDOW 0 0 56 VBottom 2
WINDOW 3 32 56 VTop 2
SYMATTR InstName R16
SYMATTR Value 1k
TEXT -1810 208 Left 2 !;ac dec 100 1 10MEG
TEXT -1810 256 Left 2 !.tran 0 10m 1m 100u
TEXT 2768 -208 Left 6 ;DRIVER
TEXT 136 -48 Left 6 ;HEADPHONE IN
TEXT -56 184 Left 2 ;Voltage Range
TEXT -48 -888 Left 2 ;Voltage Range
TEXT 176 -1184 Left 6 ;MIC PRE-AMP
TEXT -48 -848 Left 2 ;1-5mVp-p
TEXT -56 216 Left 2 ;0-8Vp-p
TEXT 616 -1008 Left 2 ;Fixed gain of 100 V/V
TEXT 1272 -1024 Left 2 ;Variable gain of 2.4 to 12 V/V
TEXT 1696 -1008 VRight 2 ;POTENTIOMETER
TEXT 1192 -1176 Left 6 ;OUTPUT AMP
TEXT 2000 344 Left 6 ;FILTER
RECTANGLE Normal 3440 1120 2384 -144 2
RECTANGLE Normal 928 848 -128 32 2
RECTANGLE Normal 944 -368 -160 -1120 2
RECTANGLE Normal 1792 -368 1104 -1120 2
RECTANGLE Normal 2272 704 2000 400 2
