Version 4
SHEET 1 2772 1124
WIRE -1536 -1344 -1536 -1392
WIRE -1536 -1248 -1536 -1264
WIRE -1232 -1248 -1536 -1248
WIRE -2080 -1232 -2080 -1264
WIRE -1936 -1232 -2080 -1232
WIRE -1712 -1232 -1856 -1232
WIRE -1712 -1216 -1712 -1232
WIRE -1664 -1216 -1664 -1296
WIRE -1536 -1216 -1536 -1248
WIRE -2080 -1136 -2080 -1232
WIRE -2080 -1008 -2080 -1056
WIRE -1712 -1008 -1712 -1024
WIRE -1712 -1008 -2080 -1008
WIRE -2080 -976 -2080 -1008
WIRE -1664 -944 -1664 -1024
WIRE 432 -864 432 -928
WIRE -2080 -848 -2080 -896
WIRE 736 -784 624 -784
WIRE 880 -784 816 -784
WIRE 256 -720 0 -720
WIRE 512 -720 320 -720
WIRE 624 -720 624 -784
WIRE 624 -720 592 -720
WIRE 688 -720 688 -864
WIRE 624 -704 624 -720
WIRE 656 -704 624 -704
WIRE 880 -688 880 -784
WIRE 880 -688 720 -688
WIRE 1136 -688 880 -688
WIRE 432 -672 432 -784
WIRE 656 -672 432 -672
WIRE 432 -592 432 -672
WIRE 688 -528 688 -656
WIRE 432 -448 432 -512
WIRE -1264 -128 -1264 -176
WIRE -976 -128 -976 -176
WIRE -1264 -16 -1264 -48
WIRE -976 -16 -976 -48
WIRE 1872 80 1792 80
WIRE 2576 80 1872 80
WIRE 2320 160 2320 0
WIRE -1264 176 -1264 128
WIRE -1120 176 -1120 128
WIRE -992 176 -992 128
WIRE -1264 288 -1264 256
WIRE -1120 288 -1120 256
WIRE -992 288 -992 256
WIRE 464 304 464 240
WIRE 816 384 640 384
WIRE 2320 384 2320 224
WIRE 2016 432 2016 288
WIRE 720 448 720 304
WIRE 1872 448 1872 80
WIRE 1872 448 1792 448
WIRE 1984 448 1872 448
WIRE 640 464 640 384
WIRE 688 464 640 464
WIRE 2272 464 2048 464
WIRE 816 480 816 384
WIRE 816 480 752 480
WIRE 1136 480 1136 -688
WIRE 1328 480 1136 480
WIRE 1456 480 1408 480
WIRE 1984 480 1456 480
WIRE 64 496 32 496
WIRE 192 496 144 496
WIRE 288 496 192 496
WIRE 464 496 464 384
WIRE 464 496 352 496
WIRE 688 496 464 496
WIRE 1456 528 1456 480
WIRE 2320 560 2320 480
WIRE 2576 560 2576 80
WIRE 2576 560 2320 560
WIRE 192 576 192 496
WIRE 464 576 464 496
WIRE 2016 624 2016 496
WIRE 720 640 720 512
WIRE 1456 640 1456 592
WIRE 2320 656 2320 560
WIRE 192 720 192 656
WIRE 464 720 464 656
WIRE 2320 992 2320 736
FLAG -1264 288 0
FLAG -1264 128 12V
FLAG 2016 288 5V
FLAG -1264 -16 0
FLAG -1264 -176 VHEADPHONES
FLAG -2080 -1264 5V
FLAG -1120 288 0
FLAG -1120 128 5V
FLAG -992 288 0
FLAG -992 128 VREF
FLAG 2320 992 0
FLAG -1664 -1296 5V
FLAG -1536 -1392 0
FLAG -1664 -944 0
FLAG -2080 -848 0
FLAG 2320 0 5V
FLAG 2016 624 0
FLAG 1792 80 fb
FLAG 1792 448 inm
FLAG 32 496 VHEADPHONES
FLAG 720 304 5V
FLAG 720 640 0
FLAG 464 720 0
FLAG 464 240 VREF
FLAG 192 720 0
FLAG 1456 640 0
FLAG 0 -720 VMIC
FLAG 688 -864 5V
FLAG 688 -528 0
FLAG 432 -448 0
FLAG 432 -928 VREF
FLAG -976 -16 0
FLAG -976 -176 VMIC
SYMBOL Opamps\\OP291 2016 400 R0
SYMATTR InstName U1
SYMBOL voltage -1264 160 R0
WINDOW 123 0 0 Left 0
WINDOW 39 0 0 Left 0
SYMATTR InstName V1
SYMATTR Value 12
SYMBOL voltage -1264 -144 R0
WINDOW 3 24 44 Left 2
WINDOW 123 0 0 Left 0
WINDOW 39 0 0 Left 0
SYMATTR InstName V2
SYMATTR Value SINE(4 1 4k)
SYMBOL res -2096 -1152 R0
SYMATTR InstName R1
SYMATTR Value 0.1
SYMBOL nmos 2272 384 R0
SYMATTR InstName M1
SYMATTR Value Si4940DY
SYMBOL LED 2304 160 R0
SYMATTR InstName D1
SYMATTR Value NSSWS108T
SYMBOL voltage -1120 160 R0
WINDOW 123 0 0 Left 0
WINDOW 39 0 0 Left 0
SYMATTR InstName V3
SYMATTR Value 5
SYMBOL voltage -992 160 R0
WINDOW 123 0 0 Left 0
WINDOW 39 0 0 Left 0
SYMATTR InstName V4
SYMATTR Value 1
SYMBOL Opamps\\LT6106 -1648 -1120 R270
SYMATTR InstName U2
SYMBOL res -1520 -1248 R180
WINDOW 0 36 76 Left 2
WINDOW 3 36 40 Left 2
SYMATTR InstName R3
SYMATTR Value 10k
SYMBOL res -1840 -1248 R90
WINDOW 0 0 56 VBottom 2
WINDOW 3 32 56 VTop 2
SYMATTR InstName R4
SYMATTR Value 100
SYMBOL current -2080 -976 R0
WINDOW 123 0 0 Left 0
WINDOW 39 0 0 Left 0
SYMATTR InstName I1
SYMATTR Value 10m
SYMBOL res 2304 640 R0
SYMATTR InstName R6
SYMATTR Value 100
SYMBOL Opamps\\OP291 720 416 R0
SYMATTR InstName U3
SYMBOL res 448 288 R0
SYMATTR InstName R2
SYMATTR Value 100k
SYMBOL res 448 560 R0
SYMATTR InstName R5
SYMATTR Value 1000Meg
SYMBOL cap 352 480 R90
WINDOW 0 0 32 VBottom 2
WINDOW 3 32 32 VTop 2
SYMATTR InstName C1
SYMATTR Value 10µ
SYMBOL res 160 480 R90
WINDOW 0 0 56 VBottom 2
WINDOW 3 32 56 VTop 2
SYMATTR InstName R7
SYMATTR Value 22k
SYMBOL res 208 672 R180
WINDOW 0 36 76 Left 2
WINDOW 3 36 40 Left 2
SYMATTR InstName R8
SYMATTR Value 100k
SYMBOL res 1424 464 R90
WINDOW 0 0 56 VBottom 2
WINDOW 3 32 56 VTop 2
SYMATTR InstName R9
SYMATTR Value 10k
SYMBOL cap 1440 528 R0
SYMATTR InstName C2
SYMATTR Value 1n
SYMBOL Opamps\\OP291 688 -752 R0
SYMATTR InstName U4
SYMBOL res 416 -880 R0
SYMATTR InstName R10
SYMATTR Value 100k
SYMBOL res 416 -608 R0
SYMATTR InstName R11
SYMATTR Value 1000Meg
SYMBOL cap 320 -736 R90
WINDOW 0 0 32 VBottom 2
WINDOW 3 32 32 VTop 2
SYMATTR InstName C3
SYMATTR Value 10µ
SYMBOL voltage -976 -144 R0
WINDOW 3 24 44 Left 2
WINDOW 123 0 0 Left 0
WINDOW 39 0 0 Left 0
SYMATTR InstName V5
SYMATTR Value SINE(3.3 3m 4k)
SYMBOL res 608 -736 R90
WINDOW 0 0 56 VBottom 2
WINDOW 3 32 56 VTop 2
SYMATTR InstName R12
SYMATTR Value 1k
SYMBOL res 832 -800 R90
WINDOW 0 0 56 VBottom 2
WINDOW 3 32 56 VTop 2
SYMATTR InstName R13
SYMATTR Value 100k
TEXT -1810 208 Left 2 !;ac dec 100 1 10MEG
TEXT -1810 256 Left 2 !.tran 0 10m 1m 100u
TEXT 2048 -208 Left 6 ;DRIVER
TEXT 136 -48 Left 6 ;HEADPHONE IN
TEXT -56 184 Left 2 ;Voltage Range
TEXT -48 -888 Left 2 ;Voltage Range
TEXT -8 -1192 Left 6 ;MIC IN
TEXT -48 -848 Left 2 ;0-5mVp-p
TEXT -56 216 Left 2 ;0-8Vp-p
RECTANGLE Normal 2720 1120 1664 -144 2
RECTANGLE Normal 928 848 -128 32 2
RECTANGLE Normal 944 -368 -160 -1120 2
